tests/main/reference/launch_archive_named/outputIIDM.xml
<?xml version="1.0" encoding="UTF-8"?>
<iidm:network xmlns:iidm="http://www.powsybl.org/schema/iidm/1_5" id="ieee14bus" caseDate="2017-06-09T10:14:24.146000+02:00" forecastDistance="0" sourceFormat="CIM1">
    <iidm:substation id="_BUS___10_SS" name="BUS   10_SS" country="AF" geographicalTags="_SGR_01">
        <iidm:voltageLevel id="_BUS___10_VL" name="BUS   10_VL" nominalV="13.800000000000001" topologyKind="BUS_BREAKER">
            <iidm:busBreakerTopology>
                <iidm:bus id="_BUS___10_TN" v="14.503588652049009" angle="-4.7844051777996315"/>
            </iidm:busBreakerTopology>
            <iidm:load id="_LOAD__10_EC" name="LOAD  10" loadType="UNDEFINED" p0="9" q0="5.7999999999999998" bus="_BUS___10_TN" connectableBus="_BUS___10_TN" p="9" q="5.7999999999999998"/>
        </iidm:voltageLevel>
    </iidm:substation>
    <iidm:substation id="_BUS___11_SS" name="BUS   11_SS" country="AF" geographicalTags="_SGR_01">
        <iidm:voltageLevel id="_BUS___11_VL" name="BUS   11_VL" nominalV="13.800000000000001" topologyKind="BUS_BREAKER">
            <iidm:busBreakerTopology>
                <iidm:bus id="_BUS___11_TN" v="14.585310448081614" angle="-4.4777493445994256"/>
            </iidm:busBreakerTopology>
            <iidm:load id="_LOAD__11_EC" name="LOAD  11" loadType="UNDEFINED" p0="3.5" q0="1.8" bus="_BUS___11_TN" connectableBus="_BUS___11_TN" p="3.5000000000000004" q="1.8000000000000003"/>
        </iidm:voltageLevel>
    </iidm:substation>
    <iidm:substation id="_BUS___12_SS" name="BUS   12_SS" country="AF" geographicalTags="_SGR_01">
        <iidm:voltageLevel id="_BUS___12_VL" name="BUS   12_VL" nominalV="13.800000000000001" topologyKind="BUS_BREAKER">
            <iidm:busBreakerTopology>
                <iidm:bus id="_BUS___12_TN" v="14.561602111081072" angle="-4.7627214502377857"/>
            </iidm:busBreakerTopology>
            <iidm:load id="_LOAD__12_EC" name="LOAD  12" loadType="UNDEFINED" p0="6.0999999999999996" q0="1.6000000000000001" bus="_BUS___12_TN" connectableBus="_BUS___12_TN" p="6.0999999999999996" q="1.6000000000000001"/>
        </iidm:voltageLevel>
    </iidm:substation>
    <iidm:substation id="_BUS___13_SS" name="BUS   13_SS" country="AF" geographicalTags="_SGR_01">
        <iidm:voltageLevel id="_BUS___13_VL" name="BUS   13_VL" nominalV="13.800000000000001" topologyKind="BUS_BREAKER">
            <iidm:busBreakerTopology>
                <iidm:bus id="_BUS___13_TN" v="14.49526796160603" angle="-4.8434109038771718"/>
            </iidm:busBreakerTopology>
            <iidm:load id="_LOAD__13_EC" name="LOAD  13" loadType="UNDEFINED" p0="13.5" q0="5.7999999999999998" bus="_BUS___13_TN" connectableBus="_BUS___13_TN" p="13.5" q="5.7999999999999998"/>
        </iidm:voltageLevel>
    </iidm:substation>
    <iidm:substation id="_BUS___14_SS" name="BUS   14_SS" country="AF" geographicalTags="_SGR_01">
        <iidm:voltageLevel id="_BUS___14_VL" name="BUS   14_VL" nominalV="13.800000000000001" topologyKind="BUS_BREAKER">
            <iidm:busBreakerTopology>
                <iidm:bus id="_BUS___14_TN" v="14.290314060702485" angle="-5.7207666437398341"/>
            </iidm:busBreakerTopology>
            <iidm:load id="_LOAD__14_EC" name="LOAD  14" loadType="UNDEFINED" p0="14.9" q0="5" bus="_BUS___14_TN" connectableBus="_BUS___14_TN" p="14.899999999999999" q="5"/>
        </iidm:voltageLevel>
    </iidm:substation>
    <iidm:substation id="_BUS____1_SS" name="BUS    1_SS" country="AF" geographicalTags="_SGR_01">
        <iidm:voltageLevel id="_BUS____1_VL" name="BUS    1_VL" nominalV="69" topologyKind="BUS_BREAKER">
            <iidm:busBreakerTopology>
                <iidm:bus id="_BUS____1_TN" v="73.140000001034423" angle="10.312347080177192"/>
            </iidm:busBreakerTopology>
            <iidm:generator id="_GEN____1_SM" name="GEN    1" energySource="OTHER" minP="-9999" maxP="9999" voltageRegulatorOn="true" targetP="232.34630000000001" targetV="73.140000000000001" targetQ="-16.759" bus="_BUS____1_TN" connectableBus="_BUS____1_TN" p="-232.36887172247859" q="16.544330362189775">
                <iidm:minMaxReactiveLimits minQ="-999" maxQ="999"/>
            </iidm:generator>
        </iidm:voltageLevel>
    </iidm:substation>
    <iidm:substation id="_BUS____2_SS" name="BUS    2_SS" country="AF" geographicalTags="_SGR_01">
        <iidm:voltageLevel id="_BUS____2_VL" name="BUS    2_VL" nominalV="69" topologyKind="BUS_BREAKER">
            <iidm:busBreakerTopology>
                <iidm:bus id="_BUS____2_TN" v="72.105000004587708" angle="5.3304408065454503"/>
            </iidm:busBreakerTopology>
            <iidm:generator id="_GEN____2_SM" name="GEN    2" energySource="OTHER" minP="-9999" maxP="9999" voltageRegulatorOn="true" targetP="40" targetV="72.105000000000004" targetQ="42.399999999999999" bus="_BUS____2_TN" connectableBus="_BUS____2_TN" p="-40.022571722478581" q="-43.547741872727883">
                <iidm:minMaxReactiveLimits minQ="-40" maxQ="50"/>
            </iidm:generator>
            <iidm:load id="_LOAD___2_EC" name="LOAD   2" loadType="UNDEFINED" p0="21.699999999999999" q0="12.699999999999999" bus="_BUS____2_TN" connectableBus="_BUS____2_TN" p="21.699733307302463" q="12.699739863027396"/>
        </iidm:voltageLevel>
    </iidm:substation>
    <iidm:substation id="_BUS____3_SS" name="BUS    3_SS" country="AF" geographicalTags="_SGR_01">
        <iidm:voltageLevel id="_BUS____3_VL" name="BUS    3_VL" nominalV="69" topologyKind="BUS_BREAKER">
            <iidm:busBreakerTopology>
                <iidm:bus id="_BUS____3_TN" v="69.689999999075454" angle="-2.4121346946713231"/>
            </iidm:busBreakerTopology>
            <iidm:generator id="_GEN____3_SM" name="GEN    3" energySource="OTHER" minP="-9999" maxP="9999" voltageRegulatorOn="true" targetP="0" targetV="69.689999999999998" targetQ="23.399999999999999" bus="_BUS____3_TN" connectableBus="_BUS____3_TN" p="-0" q="-25.075251224369101">
                <iidm:minMaxReactiveLimits minQ="0" maxQ="40"/>
            </iidm:generator>
            <iidm:load id="_LOAD___3_EC" name="LOAD   3" loadType="UNDEFINED" p0="94.200000000000003" q0="19" bus="_BUS____3_TN" connectableBus="_BUS____3_TN" p="94.199999998125435" q="18.999999999369837"/>
        </iidm:voltageLevel>
    </iidm:substation>
    <iidm:substation id="_BUS____4_SS" name="BUS    4_SS" country="AF" geographicalTags="_SGR_01">
        <iidm:voltageLevel id="_BUS____9_VL" name="BUS    9_VL" nominalV="13.800000000000001" topologyKind="BUS_BREAKER">
            <iidm:busBreakerTopology>
                <iidm:bus id="_BUS____9_TN" v="14.571858720578735" angle="-4.6256332402267013"/>
            </iidm:busBreakerTopology>
            <iidm:load id="_LOAD___9_EC" name="LOAD   9" loadType="UNDEFINED" p0="29.5" q0="16.600000000000001" bus="_BUS____9_TN" connectableBus="_BUS____9_TN" p="29.5" q="16.600000000000001"/>
            <iidm:shunt id="_BANK___9_SC" name="BANK   9" sectionCount="1" voltageRegulatorOn="false" bus="_BUS____9_TN" connectableBus="_BUS____9_TN" q="-21.1848563328724">
                <iidm:shuntLinearModel bPerSection="0.099768999999999997" maximumSectionCount="1"/>
            </iidm:shunt>
        </iidm:voltageLevel>
        <iidm:voltageLevel id="_BUS____7_VL" name="BUS    7_VL" nominalV="13.800000000000001" topologyKind="BUS_BREAKER">
            <iidm:busBreakerTopology>
                <iidm:bus id="_BUS____7_TN" v="14.648969906129272" angle="-3.0467348817018349"/>
            </iidm:busBreakerTopology>
        </iidm:voltageLevel>
        <iidm:voltageLevel id="_BUS____4_VL" name="BUS    4_VL" nominalV="69" topologyKind="BUS_BREAKER">
            <iidm:busBreakerTopology>
                <iidm:bus id="_BUS____4_TN" v="70.219294011938288" angle="0"/>
            </iidm:busBreakerTopology>
            <iidm:load id="_LOAD___4_EC" name="LOAD   4" loadType="UNDEFINED" p0="47.799999999999997" q0="-3.8999999999999999" bus="_BUS____4_TN" connectableBus="_BUS____4_TN" p="47.799766777704669" q="-3.8999682857227178"/>
        </iidm:voltageLevel>
        <iidm:twoWindingsTransformer id="_BUS____4-BUS____9-1_PT" name="BUS    4-BUS    9-1" r="0" x="1.0591881000000001" g="0" b="0" ratedU1="69" ratedU2="13.800000000000001" bus1="_BUS____4_TN" connectableBus1="_BUS____4_TN" voltageLevelId1="_BUS____4_VL" bus2="_BUS____9_TN" connectableBus2="_BUS____9_TN" voltageLevelId2="_BUS____9_VL" p1="16.079820943124599" q1="-0.42761532960265364" p2="-16.079820943124595" q2="1.7323350232275354">
            <iidm:ratioTapChanger lowTapPosition="1" tapPosition="4" loadTapChangingCapabilities="false">
                <iidm:step r="0" x="0" g="0" b="0" rho="1.1111112000000001"/>
                <iidm:step r="0" x="0" g="0" b="0" rho="1.0834235999999999"/>
                <iidm:step r="0" x="0" g="0" b="0" rho="1.0570824999999999"/>
                <iidm:step r="0" x="0" g="0" b="0" rho="1.0319917000000001"/>
                <iidm:step r="0" x="0" g="0" b="0" rho="1.015744"/>
                <iidm:step r="0" x="0" g="0" b="0" rho="1"/>
                <iidm:step r="0" x="0" g="0" b="0" rho="0.98039220000000005"/>
                <iidm:step r="0" x="0" g="0" b="0" rho="0.96153849999999996"/>
                <iidm:step r="0" x="0" g="0" b="0" rho="0.94339629999999997"/>
                <iidm:step r="0" x="0" g="0" b="0" rho="0.92592589999999997"/>
                <iidm:step r="0" x="0" g="0" b="0" rho="0.90909090000000004"/>
            </iidm:ratioTapChanger>
            <iidm:currentLimits1 permanentLimit="836.74000000000001"/>
            <iidm:currentLimits2 permanentLimit="4183.6999999999998"/>
        </iidm:twoWindingsTransformer>
        <iidm:twoWindingsTransformer id="_BUS____4-BUS____7-1_PT" name="BUS    4-BUS    7-1" r="0" x="0.39824801999999998" g="0" b="0" ratedU1="69" ratedU2="13.800000000000001" bus1="_BUS____4_TN" connectableBus1="_BUS____4_TN" voltageLevelId1="_BUS____4_VL" bus2="_BUS____7_TN" connectableBus2="_BUS____7_TN" voltageLevelId2="_BUS____7_VL" p1="28.074263104420755" q1="-9.681083543001046" p2="-28.074263104420758" q2="11.384307472230162">
            <iidm:ratioTapChanger lowTapPosition="1" tapPosition="5" loadTapChangingCapabilities="false">
                <iidm:step r="0" x="0" g="0" b="0" rho="1.1111112000000001"/>
                <iidm:step r="0" x="0" g="0" b="0" rho="1.0875475999999999"/>
                <iidm:step r="0" x="0" g="0" b="0" rho="1.0649626999999999"/>
                <iidm:step r="0" x="0" g="0" b="0" rho="1.0432965999999999"/>
                <iidm:step r="0" x="0" g="0" b="0" rho="1.0224948"/>
                <iidm:step r="0" x="0" g="0" b="0" rho="1"/>
                <iidm:step r="0" x="0" g="0" b="0" rho="0.98039215999999996"/>
                <iidm:step r="0" x="0" g="0" b="0" rho="0.96153849999999996"/>
                <iidm:step r="0" x="0" g="0" b="0" rho="0.94339629999999997"/>
                <iidm:step r="0" x="0" g="0" b="0" rho="0.92592589999999997"/>
                <iidm:step r="0" x="0" g="0" b="0" rho="0.90909090000000004"/>
            </iidm:ratioTapChanger>
            <iidm:currentLimits1 permanentLimit="836.74000000000001"/>
            <iidm:currentLimits2 permanentLimit="4183.6999999999998"/>
        </iidm:twoWindingsTransformer>
    </iidm:substation>
    <iidm:substation id="_BUS____5_SS" name="BUS    5_SS" country="AF" geographicalTags="_SGR_01">
        <iidm:voltageLevel id="_BUS____6_VL" name="BUS    6_VL" nominalV="13.800000000000001" topologyKind="BUS_BREAKER">
            <iidm:busBreakerTopology>
                <iidm:bus id="_BUS____6_TN" v="14.765999999969004" angle="-3.9080849733744949"/>
            </iidm:busBreakerTopology>
            <iidm:generator id="_GEN____6_SM" name="GEN    6" energySource="OTHER" minP="-9999" maxP="9999" voltageRegulatorOn="true" targetP="0" targetV="14.766" targetQ="12.199999999999999" bus="_BUS____6_TN" connectableBus="_BUS____6_TN" p="-0" q="-12.730927854998386">
                <iidm:minMaxReactiveLimits minQ="-6" maxQ="24"/>
            </iidm:generator>
            <iidm:load id="_LOAD___6_EC" name="LOAD   6" loadType="UNDEFINED" p0="11.199999999999999" q0="7.5" bus="_BUS____6_TN" connectableBus="_BUS____6_TN" p="11.199999999999999" q="7.5"/>
        </iidm:voltageLevel>
        <iidm:voltageLevel id="_BUS____5_VL" name="BUS    5_VL" nominalV="69" topologyKind="BUS_BREAKER">
            <iidm:busBreakerTopology>
                <iidm:bus id="_BUS____5_TN" v="70.34646538417536" angle="1.5390009195707233"/>
            </iidm:busBreakerTopology>
            <iidm:load id="_LOAD___5_EC" name="LOAD   5" loadType="UNDEFINED" p0="7.5999999999999996" q0="1.6000000000000001" bus="_BUS____5_TN" connectableBus="_BUS____5_TN" p="7.5999626066388561" q="1.5999868795439243"/>
        </iidm:voltageLevel>
        <iidm:twoWindingsTransformer id="_BUS____5-BUS____6-1_PT" name="BUS    5-BUS    6-1" r="0" x="0.47994804000000002" g="0" b="0" ratedU1="69" ratedU2="13.800000000000001" bus1="_BUS____5_TN" connectableBus1="_BUS____5_TN" voltageLevelId1="_BUS____5_VL" bus2="_BUS____6_TN" connectableBus2="_BUS____6_TN" voltageLevelId2="_BUS____6_VL" p1="44.087167966211446" q1="12.470719561918754" p2="-44.087167966211453" q2="-8.0495749927536497">
            <iidm:ratioTapChanger lowTapPosition="1" tapPosition="3" loadTapChangingCapabilities="false">
                <iidm:step r="0" x="0" g="0" b="0" rho="1.1111112000000001"/>
                <iidm:step r="0" x="0" g="0" b="0" rho="1.0917030999999999"/>
                <iidm:step r="0" x="0" g="0" b="0" rho="1.0729614000000001"/>
                <iidm:step r="0" x="0" g="0" b="0" rho="1.0474859999999999"/>
                <iidm:step r="0" x="0" g="0" b="0" rho="1.0231923999999999"/>
                <iidm:step r="0" x="0" g="0" b="0" rho="1"/>
                <iidm:step r="0" x="0" g="0" b="0" rho="0.98039220000000005"/>
                <iidm:step r="0" x="0" g="0" b="0" rho="0.96153849999999996"/>
                <iidm:step r="0" x="0" g="0" b="0" rho="0.94339629999999997"/>
                <iidm:step r="0" x="0" g="0" b="0" rho="0.92592589999999997"/>
                <iidm:step r="0" x="0" g="0" b="0" rho="0.90909090000000004"/>
            </iidm:ratioTapChanger>
            <iidm:currentLimits1 permanentLimit="836.74000000000001"/>
            <iidm:currentLimits2 permanentLimit="4183.6999999999998"/>
        </iidm:twoWindingsTransformer>
    </iidm:substation>
    <iidm:substation id="_BUS____8_SS" name="BUS    8_SS" country="AF" geographicalTags="_SGR_01">
        <iidm:voltageLevel id="_BUS____8_VL" name="BUS    8_VL" nominalV="13.800000000000001" topologyKind="BUS_BREAKER">
            <iidm:busBreakerTopology>
                <iidm:bus id="_BUS____8_TN" v="15.041999999997735" angle="-3.0467348817828563"/>
            </iidm:busBreakerTopology>
            <iidm:generator id="_GEN____8_SM" name="GEN    8" energySource="OTHER" minP="-9999" maxP="9999" voltageRegulatorOn="true" targetP="0" targetV="15.042" targetQ="17.399999999999999" bus="_BUS____8_TN" connectableBus="_BUS____8_TN" p="-0" q="-17.623438478418596">
                <iidm:minMaxReactiveLimits minQ="-6" maxQ="24"/>
            </iidm:generator>
        </iidm:voltageLevel>
    </iidm:substation>
    <iidm:line id="_BUS___10-BUS___11-1_AC" name="BUS   10-BUS   11-1" r="0.15625600000000001" x="0.36577799999999999" g1="0" b1="0" g2="0" b2="0" bus1="_BUS___10_TN" connectableBus1="_BUS___10_TN" voltageLevelId1="_BUS___10_VL" bus2="_BUS___11_TN" connectableBus2="_BUS___11_TN" voltageLevelId2="_BUS___11_VL" p1="-3.7852287458534617" q1="-1.61509108600482" p2="3.7978095616217891" q2="1.6445413831460962">
        <iidm:currentLimits1 permanentLimit="4183.6999999999998"/>
    </iidm:line>
    <iidm:line id="_BUS___12-BUS___13-1_AC" name="BUS   12-BUS   13-1" r="0.42071999999999998" x="0.38065100000000002" g1="0" b1="0" g2="0" b2="0" bus1="_BUS___12_TN" connectableBus1="_BUS___12_TN" voltageLevelId1="_BUS___12_VL" bus2="_BUS___13_TN" connectableBus2="_BUS___13_TN" voltageLevelId2="_BUS___13_VL" p1="1.6142417615448699" q1="0.75396362776782322" p2="-1.6079435930978265" q2="-0.74826529130286923">
        <iidm:currentLimits1 permanentLimit="4183.6999999999998"/>
    </iidm:line>
    <iidm:line id="_BUS___13-BUS___14-1_AC" name="BUS   13-BUS   14-1" r="0.325519" x="0.66276900000000005" g1="0" b1="0" g2="0" b2="0" bus1="_BUS___13_TN" connectableBus1="_BUS___13_TN" voltageLevelId1="_BUS___13_VL" bus2="_BUS___14_TN" connectableBus2="_BUS___14_TN" voltageLevelId2="_BUS___14_VL" p1="5.6437942999460331" q1="1.7471914091303882" p2="-5.5897172947362135" q2="-1.637088580521592">
        <iidm:currentLimits1 permanentLimit="4183.6999999999998"/>
    </iidm:line>
    <iidm:line id="_BUS____1-BUS____2-1_AC" name="BUS    1-BUS    2-1" r="0.922682" x="2.8170799999999998" g1="0" b1="0.00055450499999999995" g2="0" b2="0.00055450499999999995" bus1="_BUS____1_TN" connectableBus1="_BUS____1_TN" voltageLevelId1="_BUS____1_VL" bus2="_BUS____2_TN" connectableBus2="_BUS____2_TN" voltageLevelId2="_BUS____2_VL" p1="156.8624181802237" q1="-20.399556294173493" p2="-152.56595324850656" q2="27.668031463347869">
        <iidm:currentLimits1 permanentLimit="836.74000000000001"/>
    </iidm:line>
    <iidm:line id="_BUS____1-BUS____5-1_AC" name="BUS    1-BUS    5-1" r="2.5723699999999998" x="10.6189" g1="0" b1="0.00051670000000000004" g2="0" b2="0.00051670000000000004" bus1="_BUS____1_TN" connectableBus1="_BUS____1_TN" voltageLevelId1="_BUS____1_VL" bus2="_BUS____5_TN" connectableBus2="_BUS____5_TN" voltageLevelId2="_BUS____5_VL" p1="75.506452779705086" q1="3.8552259444058974" p2="-72.743862126800153" q2="2.2278960818128759">
        <iidm:currentLimits1 permanentLimit="836.74000000000001"/>
    </iidm:line>
    <iidm:line id="_BUS____2-BUS____3-1_AC" name="BUS    2-BUS    3-1" r="2.23719" x="9.4253499999999999" g1="0" b1="0.00045998749999999998" g2="0" b2="0.00045998749999999998" bus1="_BUS____2_TN" connectableBus1="_BUS____2_TN" voltageLevelId1="_BUS____2_VL" bus2="_BUS____3_TN" connectableBus2="_BUS____3_TN" voltageLevelId2="_BUS____3_VL" p1="73.238179472704743" q1="3.5601724815258611" p2="-70.914876510197629" q2="1.6024192874380949">
        <iidm:currentLimits1 permanentLimit="836.74000000000001"/>
    </iidm:line>
    <iidm:line id="_BUS____2-BUS____4-1_AC" name="BUS    2-BUS    4-1" r="2.7666200000000001" x="8.3946000000000005" g1="0" b1="0.00035706799999999999" g2="0" b2="0.00035706799999999999" bus1="_BUS____2_TN" connectableBus1="_BUS____2_TN" voltageLevelId1="_BUS____2_VL" bus2="_BUS____4_TN" connectableBus2="_BUS____4_TN" voltageLevelId2="_BUS____4_VL" p1="56.132707696560836" q1="-1.5506877675753774" p2="-54.455975827274948" q2="3.0212452087593036">
        <iidm:currentLimits1 permanentLimit="836.74000000000001"/>
    </iidm:line>
    <iidm:line id="_BUS____2-BUS____5-1_AC" name="BUS    2-BUS    5-1" r="2.7113900000000002" x="8.2784300000000002" g1="0" b1="0.000363369" g2="0" b2="0.000363369" bus1="_BUS____2_TN" connectableBus1="_BUS____2_TN" voltageLevelId1="_BUS____2_VL" bus2="_BUS____5_TN" connectableBus2="_BUS____5_TN" voltageLevelId2="_BUS____5_VL" p1="41.517905365757187" q1="1.170485914507021" p2="-40.614080283538286" q2="-2.0983025184016078">
        <iidm:currentLimits1 permanentLimit="836.74000000000001"/>
    </iidm:line>
    <iidm:line id="_BUS____3-BUS____4-1_AC" name="BUS    3-BUS    4-1" r="3.19035" x="8.1427399999999999" g1="0" b1="0.00013442550000000001" g2="0" b2="0.00013442550000000001" bus1="_BUS____3_TN" connectableBus1="_BUS____3_TN" voltageLevelId1="_BUS____3_VL" bus2="_BUS____4_TN" connectableBus2="_BUS____4_TN" voltageLevelId2="_BUS____4_VL" p1="-23.285123560542402" q1="4.472831936758344" p2="23.658549730320004" q2="-4.8354174239337464">
        <iidm:currentLimits1 permanentLimit="836.74000000000001"/>
    </iidm:line>
    <iidm:line id="_BUS____4-BUS____5-1_AC" name="BUS    4-BUS    5-1" r="0.63559299999999996" x="2.0048599999999999" g1="0" b1="0" g2="0" b2="0" bus1="_BUS____4_TN" connectableBus1="_BUS____4_TN" voltageLevelId1="_BUS____4_VL" bus2="_BUS____5_TN" connectableBus2="_BUS____5_TN" voltageLevelId2="_BUS____5_VL" p1="-61.1564245078727" q1="15.822839346904823" p2="61.670811873645867" q2="-14.200299995237941">
        <iidm:currentLimits1 permanentLimit="836.74000000000001"/>
    </iidm:line>
    <iidm:line id="_BUS____6-BUS___11-1_AC" name="BUS    6-BUS   11-1" r="0.18088000000000001" x="0.37878499999999998" g1="0" b1="0" g2="0" b2="0" bus1="_BUS____6_TN" connectableBus1="_BUS____6_TN" voltageLevelId1="_BUS____6_VL" bus2="_BUS___11_TN" connectableBus2="_BUS___11_TN" voltageLevelId2="_BUS___11_VL" p1="7.3531818991716928" q1="3.5604978785429222" p2="-7.2978095616022252" q2="-3.4445413831523268">
        <iidm:currentLimits1 permanentLimit="4183.6999999999998"/>
    </iidm:line>
    <iidm:line id="_BUS____6-BUS___12-1_AC" name="BUS    6-BUS   12-1" r="0.23407" x="0.48716500000000001" g1="0" b1="0" g2="0" b2="0" bus1="_BUS____6_TN" connectableBus1="_BUS____6_TN" voltageLevelId1="_BUS____6_VL" bus2="_BUS___12_TN" connectableBus2="_BUS___12_TN" voltageLevelId2="_BUS___12_VL" p1="7.7860508169256093" q1="2.5034183143010855" p2="-7.7142417615190668" q2="-2.3539636277665963">
        <iidm:currentLimits1 permanentLimit="4183.6999999999998"/>
    </iidm:line>
    <iidm:line id="_BUS____6-BUS___13-1_AC" name="BUS    6-BUS   13-1" r="0.125976" x="0.248086" g1="0" b1="0" g2="0" b2="0" bus1="_BUS____6_TN" connectableBus1="_BUS____6_TN" voltageLevelId1="_BUS____6_VL" bus2="_BUS___13_TN" connectableBus2="_BUS___13_TN" voltageLevelId2="_BUS___13_VL" p1="17.747935241252975" q1="7.2165866548877631" p2="-17.535850706790075" q2="-6.7989261178270244">
        <iidm:currentLimits1 permanentLimit="4183.6999999999998"/>
    </iidm:line>
    <iidm:line id="_BUS____7-BUS____8-1_AC" name="BUS    7-BUS    8-1" r="0" x="0.33545999999999998" g1="0" b1="0" g2="0" b2="0" bus1="_BUS____7_TN" connectableBus1="_BUS____7_TN" voltageLevelId1="_BUS____7_VL" bus2="_BUS____8_TN" connectableBus2="_BUS____8_TN" voltageLevelId2="_BUS____8_VL" p1="9.288547361818722e-10" q1="-17.162958377398997" p2="-9.288547361818722e-10" q2="17.623438478413284">
        <iidm:currentLimits1 permanentLimit="4183.6999999999998"/>
    </iidm:line>
    <iidm:line id="_BUS____7-BUS____9-1_AC" name="BUS    7-BUS    9-1" r="0" x="0.20950299999999999" g1="0" b1="0" g2="0" b2="0" bus1="_BUS____7_TN" connectableBus1="_BUS____7_TN" voltageLevelId1="_BUS____7_VL" bus2="_BUS____9_TN" connectableBus2="_BUS____9_TN" voltageLevelId2="_BUS____9_VL" p1="28.07426310349193" q1="5.7786509051692114" p2="-28.074263103491941" q2="-4.9765780804522572">
        <iidm:currentLimits1 permanentLimit="4183.6999999999998"/>
    </iidm:line>
    <iidm:line id="_BUS____9-BUS___10-1_AC" name="BUS    9-BUS   10-1" r="0.060579000000000001" x="0.16092200000000001" g1="0" b1="0" g2="0" b2="0" bus1="_BUS____9_TN" connectableBus1="_BUS____9_TN" voltageLevelId1="_BUS____9_VL" bus2="_BUS___10_TN" connectableBus2="_BUS___10_TN" voltageLevelId2="_BUS___10_VL" p1="5.2276463244633273" q1="4.2191102392078577" p2="-5.2147712540580358" q2="-4.1849089140001077">
        <iidm:currentLimits1 permanentLimit="4183.6999999999998"/>
    </iidm:line>
    <iidm:line id="_BUS____9-BUS___14-1_AC" name="BUS    9-BUS   14-1" r="0.24206800000000001" x="0.51491200000000004" g1="0" b1="0" g2="0" b2="0" bus1="_BUS____9_TN" connectableBus1="_BUS____9_TN" voltageLevelId1="_BUS____9_VL" bus2="_BUS___14_TN" connectableBus2="_BUS___14_TN" voltageLevelId2="_BUS___14_VL" p1="9.4264377224869946" q1="3.6099891508979174" p2="-9.3102827051647239" q2="-3.3629114195189471">
        <iidm:currentLimits1 permanentLimit="4183.6999999999998"/>
    </iidm:line>
</iidm:network>
